Version 4
SHEET 1 1148 1300
WIRE -640 64 -912 64
WIRE -912 128 -912 64
WIRE -912 288 -912 208
WIRE -912 288 -1184 288
WIRE -1184 320 -1184 288
WIRE -640 336 -640 64
WIRE -912 432 -912 288
WIRE -1184 480 -1184 400
WIRE -976 480 -1184 480
WIRE -912 608 -912 528
WIRE -640 608 -640 416
FLAG -912 608 0
FLAG -640 608 0
DATAFLAG -912 560 ""
DATAFLAG -912 400 ""
SYMBOL res -1200 304 R0
SYMATTR InstName R1
SYMATTR Value 68k
SYMBOL res -928 112 R0
SYMATTR InstName R2
SYMATTR Value 330
SYMBOL npn -976 432 R0
SYMATTR InstName Q1
SYMATTR Value M_BFP640
SYMBOL voltage -640 320 R0
WINDOW 123 0 0 Left 0
WINDOW 39 0 0 Left 0
SYMATTR InstName V1
SYMATTR Value 6
TEXT 224 32 Left 2 !.MODEL          M_BFP640        NPN(\n+               TNOM = 25\n+               IS              =               1.239E-015\n+               BF              =               887.6\n+               NF              =               1\n+               VAF             =               1000\n+               IKF             =               0.1433\n+               ISE             =               1E-014\n+               NE              =               2\n+               BR              =               148.3\n+               NR              =               1\n+               VAR             =               1.202\n+               IKR             =               0.01\n+               ISC             =               2.948E-015\n+               NC              =               2\n+               RB              =               5.016\n+               IRB             =               0\n+               RBM             =               1.977\n+               RE              =               0.3592\n+               RC              =               2.953\n+               XTB             =               -2.576\n+               EG              =               1.09\n+               XTI             =               0.15\n+               CJE             =               4.58707E-013\n+               VJE             =               1.76884\n+               MJE             =               0.164326\n+               TF              =               2.13534E-012\n+               XTF             =               1\n+               VTF             =               0.03\n+               ITF             =               2\n+               PTF             =               0.1\n+               CJC             =               6.62237E-014\n+               VJC             =               0.936235\n+               MJC             =               1.16702\n+               XCJC            =               1\n+               TR              =               1E-009\n+               CJS             =               1.20379E-013\n+               MJS             =               0.3\n+   VJS =   1\n+               FC              =               0.5\n+               KF              =               1.981E-012\n+               AF              =               1.552)\n***************************************************************\n*\n.ENDS BFP640
TEXT 230 -52 Left 2 !.op
